NOTUM_r5_ph4_01.pdb
  PyMOL2.3          3D                             0

 51 50  0  0  1  0  0  0  0  0999 V2000
   38.5180   43.9640   47.1160 C   0  0  0  0  0  0  0  0  0  0  0  0
   39.6760   44.6700   46.5610 O   0  0  0  0  0  0  0  0  0  0  0  0
   37.7180   44.6920   47.2510 H   0  0  0  0  0  0  0  0  0  0  0  0
   38.7830   43.5520   48.0300 H   0  0  0  0  0  0  0  0  0  0  0  0
   38.1070   43.2090   46.4460 H   0  0  0  0  0  0  0  0  0  0  0  0
   40.4360   44.2000   44.9750 C   0  0  2  0  0  0  0  0  0  0  0  0
   40.1430   45.1340   44.2710 O   0  0  0  0  0  0  0  0  0  0  0  0
   40.1150   42.7370   44.7240 C   0  0  0  0  0  0  0  0  0  0  0  0
   39.0020   42.6130   43.7050 C   0  0  0  0  0  0  0  0  0  0  0  0
   39.4860   42.9260   42.2490 C   0  0  0  0  0  0  0  0  0  0  0  0
   40.6780   42.1200   41.8430 C   0  0  0  0  0  0  0  0  0  0  0  0
   41.6880   42.9010   41.0330 C   0  0  0  0  0  0  0  0  0  0  0  0
   42.6050   42.0730   40.1280 C   0  0  0  0  0  0  0  0  0  0  0  0
   41.9410   41.5070   38.8950 C   0  0  0  0  0  0  0  0  0  0  0  0
   42.9970   40.8870   37.9480 C   0  0  0  0  0  0  0  0  0  0  0  0
   43.5590   39.6770   38.1640 C   0  0  0  0  0  0  0  0  0  0  0  0
   43.1600   38.8260   39.3690 C   0  0  0  0  0  0  0  0  0  0  0  0
   42.0630   37.8720   39.0310 C   0  0  0  0  0  0  0  0  0  0  0  0
   40.6400   38.4450   39.2010 C   0  0  0  0  0  0  0  0  0  0  0  0
   40.1190   38.2620   40.6610 C   0  0  0  0  0  0  0  0  0  0  0  0
   41.2380   38.2910   41.7550 C   0  0  0  0  0  0  0  0  0  0  0  0
   40.6450   38.3580   43.1250 C   0  0  0  0  0  0  0  0  0  0  0  0
   43.2440   41.5220   37.1890 H   0  0  0  0  0  0  0  0  0  0  0  0
   44.3490   39.0780   37.5700 H   0  0  0  0  0  0  0  0  0  0  0  0
   39.8390   42.1500   45.6550 H   0  0  0  0  0  0  0  0  0  0  0  0
   41.1030   42.2540   44.4200 H   0  0  0  0  0  0  0  0  0  0  0  0
   38.1530   43.4000   43.9550 H   0  0  0  0  0  0  0  0  0  0  0  0
   38.4760   41.5640   43.8130 H   0  0  0  0  0  0  0  0  0  0  0  0
   39.9110   43.9750   42.2780 H   0  0  0  0  0  0  0  0  0  0  0  0
   38.6010   42.7790   41.5080 H   0  0  0  0  0  0  0  0  0  0  0  0
   40.4810   41.1270   41.3110 H   0  0  0  0  0  0  0  0  0  0  0  0
   41.1080   41.7160   42.7560 H   0  0  0  0  0  0  0  0  0  0  0  0
   42.2670   43.5250   41.6990 H   0  0  0  0  0  0  0  0  0  0  0  0
   41.0760   43.5590   40.3550 H   0  0  0  0  0  0  0  0  0  0  0  0
   43.0820   41.2980   40.7070 H   0  0  0  0  0  0  0  0  0  0  0  0
   43.4710   42.7070   39.8040 H   0  0  0  0  0  0  0  0  0  0  0  0
   41.5120   42.4140   38.2830 H   0  0  0  0  0  0  0  0  0  0  0  0
   41.0910   40.8250   39.0440 H   0  0  0  0  0  0  0  0  0  0  0  0
   42.8550   39.4340   40.2130 H   0  0  0  0  0  0  0  0  0  0  0  0
   43.9600   38.1170   39.6060 H   0  0  0  0  0  0  0  0  0  0  0  0
   42.1440   36.8480   39.4400 H   0  0  0  0  0  0  0  0  0  0  0  0
   42.1040   37.4740   38.0250 H   0  0  0  0  0  0  0  0  0  0  0  0
   40.0660   37.9140   38.3900 H   0  0  0  0  0  0  0  0  0  0  0  0
   40.7390   39.4760   38.9070 H   0  0  0  0  0  0  0  0  0  0  0  0
   39.7860   37.1660   40.7560 H   0  0  0  0  0  0  0  0  0  0  0  0
   39.2440   38.7880   40.9700 H   0  0  0  0  0  0  0  0  0  0  0  0
   41.8890   39.2050   41.5470 H   0  0  0  0  0  0  0  0  0  0  0  0
   41.9370   37.3500   41.6810 H   0  0  0  0  0  0  0  0  0  0  0  0
   41.3020   38.1070   43.9430 H   0  0  0  0  0  0  0  0  0  0  0  0
   40.2890   39.4060   43.3080 H   0  0  0  0  0  0  0  0  0  0  0  0
   39.7080   37.7390   43.2020 H   0  0  0  0  0  0  0  0  0  0  0  0
  1  2  1  0  0  0  0
  1  3  1  0  0  0  0
  1  4  1  0  0  0  0
  1  5  1  0  0  0  0
  2  6  1  0  0  0  0
  6  7  1  6  0  0  0
  6  8  1  0  0  0  0
  8  9  1  0  0  0  0
  8 25  1  0  0  0  0
  8 26  1  0  0  0  0
  9 10  1  0  0  0  0
  9 27  1  0  0  0  0
  9 28  1  0  0  0  0
 10 11  1  0  0  0  0
 10 29  1  0  0  0  0
 10 30  1  0  0  0  0
 11 12  1  0  0  0  0
 11 31  1  0  0  0  0
 11 32  1  0  0  0  0
 12 13  1  0  0  0  0
 12 33  1  0  0  0  0
 12 34  1  0  0  0  0
 13 14  1  0  0  0  0
 13 35  1  0  0  0  0
 13 36  1  0  0  0  0
 14 15  1  0  0  0  0
 14 37  1  0  0  0  0
 14 38  1  0  0  0  0
 15 16  2  0  0  0  0
 15 23  1  0  0  0  0
 16 17  1  0  0  0  0
 16 24  1  0  0  0  0
 17 18  1  0  0  0  0
 17 39  1  0  0  0  0
 17 40  1  0  0  0  0
 18 19  1  0  0  0  0
 18 41  1  0  0  0  0
 18 42  1  0  0  0  0
 19 20  1  0  0  0  0
 19 43  1  0  0  0  0
 19 44  1  0  0  0  0
 20 21  1  0  0  0  0
 20 45  1  0  0  0  0
 20 46  1  0  0  0  0
 21 22  1  0  0  0  0
 21 47  1  0  0  0  0
 21 48  1  0  0  0  0
 22 49  1  0  0  0  0
 22 50  1  0  0  0  0
 22 51  1  0  0  0  0
M  END
$$$$
