reduced_protein_notum.pdb
 OpenBabel09142310193D

228198  0  0  1  0  0  0  0  0999 V2000
   41.6070   49.3930   44.4180 C   0  0  0  0  0  0  0  0  0  0  0  0
   40.1050   49.1920   44.2600 C   0  0  0  0  0  0  0  0  0  0  0  0
   42.1060   49.1220   43.5370 H   0  0  0  0  0  0  0  0  0  0  0  0
   41.8700   48.8210   45.2560 H   0  0  0  0  0  0  0  0  0  0  0  0
   39.5540   47.9640   44.0900 N   0  0  0  0  0  0  0  0  0  0  0  0
   38.1080   47.7000   44.1720 C   0  0  0  0  0  0  0  0  0  0  0  0
   37.5020   47.1730   42.8070 C   0  0  0  0  0  0  0  0  0  0  0  0
   36.8820   48.0000   42.1620 O   0  0  0  0  0  0  0  0  0  0  0  0
   40.1760   47.1140   44.0800 H   0  0  0  0  0  0  0  0  0  0  0  0
   37.9320   46.9640   44.9440 H   0  0  0  0  0  0  0  0  0  0  0  0
   37.5350   48.6350   44.4570 H   0  0  0  0  0  0  0  0  0  0  0  0
   37.6310   45.9100   42.4480 N   0  0  0  0  0  0  0  0  0  0  0  0
   36.9580   45.2360   41.3380 C   0  0  2  0  0  0  0  0  0  0  0  0
   37.2430   45.9260   39.9930 C   0  0  0  0  0  0  0  0  0  0  0  0
   38.2600   46.5630   39.8420 O   0  0  0  0  0  0  0  0  0  0  0  0
   35.4770   44.8810   41.5530 C   0  0  0  0  0  0  0  0  0  0  0  0
   35.2550   44.1870   42.8750 C   0  0  0  0  0  0  0  0  0  0  0  0
   34.8550   44.7180   44.0690 C   0  0  0  0  0  0  0  0  0  0  0  0
   35.3930   42.7630   43.0550 C   0  0  0  0  0  0  0  0  0  0  0  0
   35.2800   42.4950   44.4940 C   0  0  0  0  0  0  0  0  0  0  0  0
   35.7000   41.6650   42.2090 C   0  0  0  0  0  0  0  0  0  0  0  0
   34.7660   43.6450   44.9930 N   0  0  0  0  0  0  0  0  0  0  0  0
   35.4630   41.2020   45.0260 C   0  0  0  0  0  0  0  0  0  0  0  0
   35.8560   40.3740   42.7220 C   0  0  0  0  0  0  0  0  0  0  0  0
   35.7140   40.1350   44.1250 C   0  0  0  0  0  0  0  0  0  0  0  0
   38.3020   45.3660   42.8850 H   0  0  0  0  0  0  0  0  0  0  0  0
   37.3740   44.3010   41.1730 H   0  0  0  0  0  0  0  0  0  0  0  0
   34.9230   45.8800   41.5280 H   0  0  0  0  0  0  0  0  0  0  0  0
   35.1750   44.2710   40.7640 H   0  0  0  0  0  0  0  0  0  0  0  0
   34.5360   45.7550   44.3670 H   0  0  0  0  0  0  0  0  0  0  0  0
   34.4230   43.8190   45.9500 H   0  0  0  0  0  0  0  0  0  0  0  0
   35.7550   41.8300   41.1380 H   0  0  0  0  0  0  0  0  0  0  0  0
   35.3710   41.0650   46.1110 H   0  0  0  0  0  0  0  0  0  0  0  0
   36.1190   39.5770   42.0780 H   0  0  0  0  0  0  0  0  0  0  0  0
   35.9250   39.1790   44.5240 H   0  0  0  0  0  0  0  0  0  0  0  0
   36.4370   45.5630   38.9490 N   0  0  0  0  0  0  0  0  0  0  0  0
   37.6310   43.7860   37.2560 C   0  0  0  0  0  0  0  0  0  0  0  0
   38.5670   43.4600   38.2380 C   0  0  0  0  0  0  0  0  0  0  0  0
   36.6410   41.5880   37.4790 C   0  0  0  0  0  0  0  0  0  0  0  0
   38.6740   42.1570   38.7030 C   0  0  0  0  0  0  0  0  0  0  0  0
   37.7000   41.2350   38.3170 C   0  0  0  0  0  0  0  0  0  0  0  0
   37.6090   40.1330   39.0800 O   0  0  0  0  0  0  0  0  0  0  0  0
   35.6790   44.9500   39.1510 H   0  0  0  0  0  0  0  0  0  0  0  0
   38.5890   45.7350   37.1950 H   0  0  0  0  0  0  0  0  0  0  0  0
   39.1570   44.2180   38.6930 H   0  0  0  0  0  0  0  0  0  0  0  0
   39.4470   42.0330   39.4990 H   0  0  0  0  0  0  0  0  0  0  0  0
   38.4190   39.6020   39.1260 H   0  0  0  0  0  0  0  0  0  0  0  0
   39.3070   47.5350   39.0600 H   0  0  0  0  0  0  0  0  0  0  0  0
   42.5770   47.0390   36.7870 C   0  0  0  0  0  0  0  0  0  0  0  0
   42.8340   45.5090   36.5020 C   0  0  0  0  0  0  0  0  0  0  0  0
   43.6980   44.8150   37.5910 C   0  0  0  0  0  0  0  0  0  0  0  0
   41.5250   44.6350   36.3610 C   0  0  0  0  0  0  0  0  0  0  0  0
   42.3330   47.1720   37.8080 H   0  0  0  0  0  0  0  0  0  0  0  0
   43.3170   45.3890   35.5310 H   0  0  0  0  0  0  0  0  0  0  0  0
   43.8610   43.7560   37.2480 H   0  0  0  0  0  0  0  0  0  0  0  0
   44.6180   45.2810   37.6570 H   0  0  0  0  0  0  0  0  0  0  0  0
   43.0720   44.8220   38.4860 H   0  0  0  0  0  0  0  0  0  0  0  0
   41.7280   43.6570   36.0630 H   0  0  0  0  0  0  0  0  0  0  0  0
   41.0110   44.7620   37.2940 H   0  0  0  0  0  0  0  0  0  0  0  0
   40.8350   45.0020   35.6020 H   0  0  0  0  0  0  0  0  0  0  0  0
   44.8170   46.1290   46.1910 N   0  0  0  0  0  0  0  0  0  0  0  0
   43.8940   45.2580   45.4710 C   0  0  2  0  0  0  0  0  0  0  0  0
   43.9940   45.5020   43.9310 C   0  0  0  0  0  0  0  0  0  0  0  0
   44.9770   45.0650   43.2870 O   0  0  0  0  0  0  0  0  0  0  0  0
   42.4330   45.3450   45.9950 C   0  0  0  0  0  0  0  0  0  0  0  0
   41.8210   44.1800   45.5360 O   0  0  0  0  0  0  0  0  0  0  0  0
   44.1870   44.2050   45.6120 H   0  0  0  0  0  0  0  0  0  0  0  0
   42.4840   45.3850   47.1130 H   0  0  0  0  0  0  0  0  0  0  0  0
   41.8930   46.1370   45.5770 H   0  0  0  0  0  0  0  0  0  0  0  0
   40.6410   44.2860   47.3160 H   0  0  0  0  0  0  0  0  0  0  0  0
   43.0130   46.2040   43.2840 N   0  0  0  0  0  0  0  0  0  0  0  0
   43.0500   46.4320   41.8660 C   0  0  2  0  0  0  0  0  0  0  0  0
   44.0430   47.4760   41.4770 C   0  0  0  0  0  0  0  0  0  0  0  0
   44.6120   47.2800   40.4290 O   0  0  0  0  0  0  0  0  0  0  0  0
   41.5980   46.9660   41.4620 C   0  0  0  0  0  0  0  0  0  0  0  0
   42.0930   46.1450   43.7970 H   0  0  0  0  0  0  0  0  0  0  0  0
   43.1690   45.4420   41.3980 H   0  0  0  0  0  0  0  0  0  0  0  0
   40.8700   46.4400   42.0530 H   0  0  0  0  0  0  0  0  0  0  0  0
   41.4630   48.0060   41.5500 H   0  0  0  0  0  0  0  0  0  0  0  0
   41.4450   46.7550   40.3900 H   0  0  0  0  0  0  0  0  0  0  0  0
   47.7530   44.5120   40.5450 C   0  0  0  0  0  0  0  0  0  0  0  0
   46.4780   43.7670   40.1820 C   0  0  1  0  0  0  0  0  0  0  0  0
   46.4640   42.8980   38.9750 C   0  0  0  0  0  0  0  0  0  0  0  0
   46.1280   42.9500   41.2650 O   0  0  0  0  0  0  0  0  0  0  0  0
   46.5500   45.0330   42.1700 H   0  0  0  0  0  0  0  0  0  0  0  0
   45.7100   44.5480   40.0630 H   0  0  0  0  0  0  0  0  0  0  0  0
   46.7280   42.1960   41.2450 H   0  0  0  0  0  0  0  0  0  0  0  0
   45.4960   42.3330   38.8930 H   0  0  0  0  0  0  0  0  0  0  0  0
   46.6400   43.5850   38.1400 H   0  0  0  0  0  0  0  0  0  0  0  0
   47.3640   42.2240   38.9950 H   0  0  0  0  0  0  0  0  0  0  0  0
   46.6090   44.2050   35.5050 H   0  0  0  0  0  0  0  0  0  0  0  0
   45.3870   42.6060   46.6000 O   0  0  0  0  0  0  0  0  0  0  0  0
   46.3500   42.2530   44.1670 H   0  0  0  0  0  0  0  0  0  0  0  0
   48.2790   37.6240   41.8240 O   0  0  0  0  0  0  0  0  0  0  0  0
   46.0620   36.4710   43.3510 C   0  0  0  0  0  0  0  0  0  0  0  0
   46.6180   35.2140   42.5480 C   0  0  0  0  0  0  0  0  0  0  0  0
   45.0440   37.3150   42.5320 C   0  0  0  0  0  0  0  0  0  0  0  0
   44.4980   38.5260   43.2680 C   0  0  0  0  0  0  0  0  0  0  0  0
   44.1740   38.4960   44.6150 C   0  0  0  0  0  0  0  0  0  0  0  0
   44.6420   39.7960   42.6540 C   0  0  0  0  0  0  0  0  0  0  0  0
   43.8280   39.6540   45.2850 C   0  0  0  0  0  0  0  0  0  0  0  0
   44.2360   40.9730   43.3240 C   0  0  0  0  0  0  0  0  0  0  0  0
   43.8300   40.8830   44.6990 C   0  0  0  0  0  0  0  0  0  0  0  0
   45.4330   36.0840   44.0940 H   0  0  0  0  0  0  0  0  0  0  0  0
   45.5890   37.6800   41.6550 H   0  0  0  0  0  0  0  0  0  0  0  0
   44.2530   36.6180   42.1100 H   0  0  0  0  0  0  0  0  0  0  0  0
   44.1930   37.5290   45.0910 H   0  0  0  0  0  0  0  0  0  0  0  0
   45.1320   39.9710   41.6870 H   0  0  0  0  0  0  0  0  0  0  0  0
   43.6360   39.6170   46.3640 H   0  0  0  0  0  0  0  0  0  0  0  0
   44.2300   41.9520   42.8680 H   0  0  0  0  0  0  0  0  0  0  0  0
   43.4880   41.7820   45.2780 H   0  0  0  0  0  0  0  0  0  0  0  0
   45.7320   34.2710   42.2440 N   0  0  0  0  0  0  0  0  0  0  0  0
   44.7990   32.8680   40.5630 C   0  0  0  0  0  0  0  0  0  0  0  0
   43.6360   33.0840   40.9180 O   0  0  0  0  0  0  0  0  0  0  0  0
   44.7260   34.4520   42.4440 H   0  0  0  0  0  0  0  0  0  0  0  0
   43.5020   32.6670   38.2660 H   0  0  0  0  0  0  0  0  0  0  0  0
   35.5660   37.6390   39.2610 S   0  0  0  0  0  0  0  0  0  0  0  0
   36.8230   34.7040   36.6640 O   0  0  0  0  0  0  0  0  0  0  0  0
   38.0920   33.6990   38.2100 N   0  0  0  0  0  0  0  0  0  0  0  0
   39.3550   34.4150   38.0860 C   0  0  2  0  0  0  0  0  0  0  0  0
   39.8150   34.6390   36.6240 C   0  0  0  0  0  0  0  0  0  0  0  0
   39.9760   35.8090   36.1510 O   0  0  0  0  0  0  0  0  0  0  0  0
   40.3530   33.5700   38.9100 C   0  0  0  0  0  0  0  0  0  0  0  0
   39.5670   32.7400   39.8930 C   0  0  0  0  0  0  0  0  0  0  0  0
   39.3120   35.3260   38.6110 H   0  0  0  0  0  0  0  0  0  0  0  0
   41.0290   32.9670   38.2430 H   0  0  0  0  0  0  0  0  0  0  0  0
   41.0590   34.2510   39.3580 H   0  0  0  0  0  0  0  0  0  0  0  0
   39.3720   33.3750   40.7700 H   0  0  0  0  0  0  0  0  0  0  0  0
   40.0250   33.5580   35.8830 N   0  0  0  0  0  0  0  0  0  0  0  0
   41.3540   34.4670   34.4070 H   0  0  0  0  0  0  0  0  0  0  0  0
   36.5320   38.0030   35.6460 C   0  0  0  0  0  0  0  0  0  0  0  0
   37.4500   37.5020   35.9990 H   0  0  0  0  0  0  0  0  0  0  0  0
   36.5470   39.1060   35.8510 H   0  0  0  0  0  0  0  0  0  0  0  0
   35.7090   37.5500   36.1680 H   0  0  0  0  0  0  0  0  0  0  0  0
   41.4480   39.0720   34.7530 C   0  0  0  0  0  0  0  0  0  0  0  0
   40.7580   40.3520   35.2690 C   0  0  0  0  0  0  0  0  0  0  0  0
   39.0560   37.4790   33.8510 H   0  0  0  0  0  0  0  0  0  0  0  0
   41.4990   37.7180   33.0900 H   0  0  0  0  0  0  0  0  0  0  0  0
   40.9390   38.2920   35.3260 H   0  0  0  0  0  0  0  0  0  0  0  0
   42.4620   38.9840   35.0380 H   0  0  0  0  0  0  0  0  0  0  0  0
   43.3280   39.2520   33.0190 H   0  0  0  0  0  0  0  0  0  0  0  0
   42.1780   40.5760   32.6950 H   0  0  0  0  0  0  0  0  0  0  0  0
   40.8020   40.4280   36.3790 H   0  0  0  0  0  0  0  0  0  0  0  0
   40.9800   41.2050   34.7550 H   0  0  0  0  0  0  0  0  0  0  0  0
   39.7060   40.0870   35.1510 H   0  0  0  0  0  0  0  0  0  0  0  0
   38.7170   43.1470   34.2340 H   0  0  0  0  0  0  0  0  0  0  0  0
   47.1520   40.4050   35.3350 C   0  0  0  0  0  0  0  0  0  0  0  0
   47.3580   39.5260   36.5720 C   0  0  0  0  0  0  0  0  0  0  0  0
   46.7020   39.6890   37.5960 O   0  0  0  0  0  0  0  0  0  0  0  0
   45.7060   40.4950   34.9980 C   0  0  0  0  0  0  0  0  0  0  0  0
   45.2840   41.5000   33.8200 C   0  0  0  0  0  0  0  0  0  0  0  0
   44.3100   42.4090   34.1570 C   0  0  0  0  0  0  0  0  0  0  0  0
   43.6980   43.1920   33.1810 C   0  0  0  0  0  0  0  0  0  0  0  0
   47.4110   41.4720   35.5370 H   0  0  0  0  0  0  0  0  0  0  0  0
   45.3150   39.5450   34.6540 H   0  0  0  0  0  0  0  0  0  0  0  0
   45.2120   40.7930   35.9170 H   0  0  0  0  0  0  0  0  0  0  0  0
   44.0860   42.5790   35.2340 H   0  0  0  0  0  0  0  0  0  0  0  0
   42.9950   43.9740   33.5410 H   0  0  0  0  0  0  0  0  0  0  0  0
   48.3370   38.6280   36.5290 N   0  0  0  0  0  0  0  0  0  0  0  0
   48.6000   37.7200   37.6730 C   0  0  0  0  0  0  0  0  0  0  0  0
   48.2000   36.2740   37.2380 C   0  0  0  0  0  0  0  0  0  0  0  0
   46.7360   36.0990   37.0560 C   0  0  0  0  0  0  0  0  0  0  0  0
   45.8780   35.9130   38.1510 C   0  0  0  0  0  0  0  0  0  0  0  0
   46.2580   36.3150   35.7670 C   0  0  0  0  0  0  0  0  0  0  0  0
   44.5070   35.8410   37.8470 C   0  0  0  0  0  0  0  0  0  0  0  0
   44.8800   36.3740   35.5260 C   0  0  0  0  0  0  0  0  0  0  0  0
   43.9950   35.9470   36.5280 C   0  0  0  0  0  0  0  0  0  0  0  0
   48.8150   38.5770   35.6590 H   0  0  0  0  0  0  0  0  0  0  0  0
   48.0810   38.0280   38.5730 H   0  0  0  0  0  0  0  0  0  0  0  0
   46.2280   35.8660   39.2060 H   0  0  0  0  0  0  0  0  0  0  0  0
   46.9820   36.6540   35.0140 H   0  0  0  0  0  0  0  0  0  0  0  0
   43.7650   35.6680   38.6620 H   0  0  0  0  0  0  0  0  0  0  0  0
   44.5480   36.6850   34.5660 H   0  0  0  0  0  0  0  0  0  0  0  0
   42.9250   35.8840   36.2600 H   0  0  0  0  0  0  0  0  0  0  0  0
   42.8010   38.6220   48.6200 O   0  0  0  0  0  0  0  0  0  0  0  0
   39.9080   38.3840   48.8740 N   0  0  0  0  0  0  0  0  0  0  0  0
   39.4360   38.5410   47.5320 C   0  0  2  0  0  0  0  0  0  0  0  0
   39.7040   37.2330   46.7580 C   0  0  0  0  0  0  0  0  0  0  0  0
   38.7970   36.8780   46.0290 O   0  0  0  0  0  0  0  0  0  0  0  0
   40.2270   39.7280   46.9340 C   0  0  0  0  0  0  0  0  0  0  0  0
   40.7490   38.8140   49.2500 H   0  0  0  0  0  0  0  0  0  0  0  0
   38.4090   38.7940   47.4010 H   0  0  0  0  0  0  0  0  0  0  0  0
   41.2760   39.7030   46.9200 H   0  0  0  0  0  0  0  0  0  0  0  0
   39.9650   39.8800   45.9120 H   0  0  0  0  0  0  0  0  0  0  0  0
   39.9730   40.5570   47.5720 H   0  0  0  0  0  0  0  0  0  0  0  0
   40.8830   36.5690   46.9120 N   0  0  0  0  0  0  0  0  0  0  0  0
   41.0270   35.2370   46.2630 C   0  0  2  0  0  0  0  0  0  0  0  0
   39.9360   34.2930   46.7660 C   0  0  0  0  0  0  0  0  0  0  0  0
   39.2040   33.7480   45.9770 O   0  0  0  0  0  0  0  0  0  0  0  0
   42.4630   34.6490   46.5540 C   0  0  0  0  0  0  0  0  0  0  0  0
   42.5600   33.7650   44.1710 C   0  0  0  0  0  0  0  0  0  0  0  0
   41.6730   33.1130   43.4790 N   0  0  0  0  0  0  0  0  0  0  0  0
   43.3950   34.5100   43.6250 O   0  0  0  0  0  0  0  0  0  0  0  0
   41.5390   36.8580   47.6390 H   0  0  0  0  0  0  0  0  0  0  0  0
   40.8450   35.4300   45.2120 H   0  0  0  0  0  0  0  0  0  0  0  0
   43.2570   35.3110   46.1270 H   0  0  0  0  0  0  0  0  0  0  0  0
   41.6490   33.2750   42.4790 H   0  0  0  0  0  0  0  0  0  0  0  0
   36.2420   35.1750   45.1620 N   0  0  0  0  0  0  0  0  0  0  0  0
   36.0720   34.8180   43.7610 C   0  0  0  0  0  0  0  0  0  0  0  0
   37.1120   35.4020   42.8040 C   0  0  0  0  0  0  0  0  0  0  0  0
   37.0050   36.9160   42.8250 C   0  0  0  0  0  0  0  0  0  0  0  0
   38.5130   34.9140   42.9560 C   0  0  0  0  0  0  0  0  0  0  0  0
   37.1770   35.2480   45.4760 H   0  0  0  0  0  0  0  0  0  0  0  0
   36.9050   35.2360   41.7680 H   0  0  0  0  0  0  0  0  0  0  0  0
   37.4160   37.3040   43.7260 H   0  0  0  0  0  0  0  0  0  0  0  0
   37.5990   37.2130   42.0020 H   0  0  0  0  0  0  0  0  0  0  0  0
   35.9870   37.2270   42.7000 H   0  0  0  0  0  0  0  0  0  0  0  0
   38.6070   33.8580   42.9080 H   0  0  0  0  0  0  0  0  0  0  0  0
   39.0900   35.3240   42.1290 H   0  0  0  0  0  0  0  0  0  0  0  0
   38.9880   35.3530   43.8890 H   0  0  0  0  0  0  0  0  0  0  0  0
   41.7320   42.0590   49.9710 C   0  0  0  0  0  0  0  0  0  0  0  0
   40.9180   43.1180   49.5940 C   0  0  0  0  0  0  0  0  0  0  0  0
   42.6090   41.7540   48.8820 N   0  0  0  0  0  0  0  0  0  0  0  0
   42.2840   42.6150   47.8820 C   0  0  0  0  0  0  0  0  0  0  0  0
   41.2760   43.4980   48.2860 N   0  0  0  0  0  0  0  0  0  0  0  0
   40.8760   41.4250   51.7340 H   0  0  0  0  0  0  0  0  0  0  0  0
   43.2880   41.0130   48.8400 H   0  0  0  0  0  0  0  0  0  0  0  0
   40.0560   43.6020   50.0140 H   0  0  0  0  0  0  0  0  0  0  0  0
   42.7460   42.7080   46.9100 H   0  0  0  0  0  0  0  0  0  0  0  0
   36.5470   43.7640   49.2960 N   0  0  0  0  0  0  0  0  0  0  0  0
   35.5660   43.8920   50.3620 C   0  0  0  0  0  0  0  0  0  0  0  0
   36.0140   43.1080   51.6150 C   0  0  0  0  0  0  0  0  0  0  0  0
   37.4920   43.8330   49.6780 H   0  0  0  0  0  0  0  0  0  0  0  0
   35.5050   44.9350   50.7630 H   0  0  0  0  0  0  0  0  0  0  0  0
   34.5460   43.6030   50.0520 H   0  0  0  0  0  0  0  0  0  0  0  0
   37.2230   43.3170   52.0860 N   0  0  0  0  0  0  0  0  0  0  0  0
   37.8110   44.0470   51.6780 H   0  0  0  0  0  0  0  0  0  0  0  0
   39.7780   42.7820   52.6070 H   0  0  0  0  0  0  0  0  0  0  0  0
  1  4  1  0  0  0  0
  2  1  1  0  0  0  0
  3  1  1  0  0  0  0
  5  6  1  0  0  0  0
  5  2  1  0  0  0  0
  6 11  1  0  0  0  0
  6 10  1  0  0  0  0
  7  6  1  0  0  0  0
  8  7  2  0  0  0  0
  9  5  1  0  0  0  0
 12  7  1  0  0  0  0
 12 26  1  0  0  0  0
 13 27  1  6  0  0  0
 13 16  1  0  0  0  0
 13 12  1  0  0  0  0
 14 13  1  0  0  0  0
 15 14  2  0  0  0  0
 16 17  1  0  0  0  0
 17 19  1  0  0  0  0
 17 18  2  0  0  0  0
 18 30  1  0  0  0  0
 18 22  1  0  0  0  0
 19 20  1  0  0  0  0
 20 22  1  0  0  0  0
 20 23  2  0  0  0  0
 21 24  1  0  0  0  0
 21 19  2  0  0  0  0
 22 31  1  0  0  0  0
 23 33  1  0  0  0  0
 24 25  2  0  0  0  0
 25 35  1  0  0  0  0
 25 23  1  0  0  0  0
 28 16  1  0  0  0  0
 29 16  1  0  0  0  0
 32 21  1  0  0  0  0
 34 24  1  0  0  0  0
 36 43  1  0  0  0  0
 36 14  1  0  0  0  0
 37 38  1  0  0  0  0
 38 45  1  0  0  0  0
 38 40  1  0  0  0  0
 39 41  1  0  0  0  0
 40 46  1  0  0  0  0
 41 40  2  0  0  0  0
 41 42  1  0  0  0  0
 42 47  1  0  0  0  0
 49 53  1  0  0  0  0
 50 49  1  0  0  0  0
 50 51  1  0  0  0  0
 51 56  1  0  0  0  0
 51 57  1  0  0  0  0
 52 50  1  0  0  0  0
 52 59  1  0  0  0  0
 54 50  1  0  0  0  0
 55 51  1  0  0  0  0
 58 52  1  0  0  0  0
 60 52  1  0  0  0  0
 62 67  1  1  0  0  0
 62 65  1  0  0  0  0
 62 61  1  0  0  0  0
 63 62  1  0  0  0  0
 64 63  2  0  0  0  0
 65 68  1  0  0  0  0
 66 65  1  0  0  0  0
 69 65  1  0  0  0  0
 70215  1  0  0  0  0
 71 76  1  0  0  0  0
 71 63  1  0  0  0  0
 72 77  1  6  0  0  0
 72 71  1  0  0  0  0
 73 72  1  0  0  0  0
 74 73  2  0  0  0  0
 75 79  1  0  0  0  0
 75 72  1  0  0  0  0
 75 78  1  0  0  0  0
 80 75  1  0  0  0  0
 82 86  1  6  0  0  0
 82 81  1  0  0  0  0
 82 84  1  0  0  0  0
 83 90  1  0  0  0  0
 83 82  1  0  0  0  0
 87 84  1  0  0  0  0
 88 83  1  0  0  0  0
 89 83  1  0  0  0  0
 95104  1  0  0  0  0
 96 95  1  0  0  0  0
 97 98  1  0  0  0  0
 97 95  1  0  0  0  0
 98 99  1  0  0  0  0
 99107  1  0  0  0  0
 99101  2  0  0  0  0
100 98  2  0  0  0  0
100102  1  0  0  0  0
101109  1  0  0  0  0
102103  2  0  0  0  0
103111  1  0  0  0  0
103101  1  0  0  0  0
105 97  1  0  0  0  0
106 97  1  0  0  0  0
108100  1  0  0  0  0
110102  1  0  0  0  0
112115  1  0  0  0  0
112 96  2  0  0  0  0
113114  2  0  0  0  0
120119  1  0  0  0  0
120125  1  1  0  0  0
120123  1  0  0  0  0
121120  1  0  0  0  0
122121  2  0  0  0  0
123127  1  0  0  0  0
123124  1  0  0  0  0
124128  1  0  0  0  0
126123  1  0  0  0  0
129121  1  0  0  0  0
131133  1  0  0  0  0
131132  1  0  0  0  0
131134  1  0  0  0  0
135140  1  0  0  0  0
135136  1  0  0  0  0
135139  1  0  0  0  0
136143  1  0  0  0  0
144136  1  0  0  0  0
145136  1  0  0  0  0
147154  1  0  0  0  0
147148  1  0  0  0  0
148149  2  0  0  0  0
150147  1  0  0  0  0
150156  1  0  0  0  0
151152  1  0  0  0  0
151150  1  0  0  0  0
152157  1  0  0  0  0
153158  1  0  0  0  0
153152  2  0  0  0  0
155150  1  0  0  0  0
159148  1  0  0  0  0
159160  1  0  0  0  0
160169  1  0  0  0  0
161160  1  0  0  0  0
162161  1  0  0  0  0
162163  1  0  0  0  0
163170  1  0  0  0  0
164162  2  0  0  0  0
165163  2  0  0  0  0
165172  1  0  0  0  0
166164  1  0  0  0  0
166167  2  0  0  0  0
167165  1  0  0  0  0
168159  1  0  0  0  0
171164  1  0  0  0  0
173166  1  0  0  0  0
174167  1  0  0  0  0
176181  1  0  0  0  0
177182  1  1  0  0  0
177176  1  0  0  0  0
178186  1  0  0  0  0
178177  1  0  0  0  0
179178  2  0  0  0  0
180177  1  0  0  0  0
180185  1  0  0  0  0
183180  1  0  0  0  0
184180  1  0  0  0  0
186194  1  0  0  0  0
187195  1  6  0  0  0
187190  1  0  0  0  0
187188  1  0  0  0  0
187186  1  0  0  0  0
189188  2  0  0  0  0
192191  1  0  0  0  0
193191  2  0  0  0  0
196190  1  0  0  0  0
197192  1  0  0  0  0
198203  1  0  0  0  0
199198  1  0  0  0  0
200201  1  0  0  0  0
200202  1  0  0  0  0
200199  1  0  0  0  0
201205  1  0  0  0  0
202210  1  0  0  0  0
204200  1  0  0  0  0
206201  1  0  0  0  0
207201  1  0  0  0  0
208202  1  0  0  0  0
209202  1  0  0  0  0
212211  2  0  0  0  0
212218  1  0  0  0  0
213211  1  0  0  0  0
214215  1  0  0  0  0
214213  1  0  0  0  0
215212  1  0  0  0  0
217213  1  0  0  0  0
219214  1  0  0  0  0
220223  1  0  0  0  0
220221  1  0  0  0  0
221224  1  0  0  0  0
221222  1  0  0  0  0
222226  2  0  0  0  0
225221  1  0  0  0  0
227226  1  0  0  0  0
M  END
$$$$
